Circuit: * C:\Users\Tilman Preuschoff\Documents\GitHub\PDH_photodiode\spice\stability\LTC6268.asc

Direct Newton iteration for .op point succeeded.

Date: Tue Feb 23 11:04:51 2021
Total elapsed time: 0.434 seconds.

tnom = 27
temp = 27
method = trap
totiter = 15
traniter = 0
tranpoints = 0
accept = 0
rejected = 0
matrix size = 18
fillins = 9
solver = Normal
Matrix Compiler1:      82 opcodes
Matrix Compiler2: 1.79 KB object code size
